<?xml version="1.0" encoding="UTF-8"?>

<!-- generated on 2023-03-16 17:41:02 by Eclipse SUMO netconvert Version 1.14.1
<configuration xmlns:xsi="http://www.w3.org/2001/XMLSchema-instance" xsi:noNamespaceSchemaLocation="http://sumo.dlr.de/xsd/netconvertConfiguration.xsd">

    <input>
        <osm-files value="pioneer_MRT_area.osm"/>
    </input>

    <output>
        <output-file value="pioneer_MRT_area.net.xml"/>
    </output>

    <projection>
        <proj.utm value="true"/>
    </projection>

</configuration>
-->

<net version="1.9" junctionCornerDetail="5" limitTurnSpeed="5.50" xmlns:xsi="http://www.w3.org/2001/XMLSchema-instance" xsi:noNamespaceSchemaLocation="http://sumo.dlr.de/xsd/net_file.xsd">

    <location netOffset="-352611.22,-142476.30" convBoundary="0.00,0.00,16104.64,6202.60" origBoundary="103.675220,1.288750,103.819970,1.344806" projParameter="+proj=utm +zone=48 +ellps=WGS84 +datum=WGS84 +units=m +no_defs"/>

    <type id="highway.bridleway" priority="1" numLanes="1" speed="2.78" allow="pedestrian" oneway="1" width="2.00"/>
    <type id="highway.bus_guideway" priority="1" numLanes="1" speed="27.78" allow="bus" oneway="1"/>
    <type id="highway.cycleway" priority="1" numLanes="1" speed="5.56" allow="bicycle" oneway="0" width="1.00"/>
    <type id="highway.footway" priority="1" numLanes="1" speed="2.78" allow="pedestrian" oneway="1" width="2.00"/>
    <type id="highway.ford" priority="1" numLanes="1" speed="2.78" allow="army" oneway="0"/>
    <type id="highway.living_street" priority="2" numLanes="1" speed="2.78" disallow="tram rail_urban rail rail_electric rail_fast ship" oneway="0"/>
    <type id="highway.motorway" priority="14" numLanes="2" speed="39.44" allow="private emergency authority army vip passenger hov taxi bus coach delivery truck trailer motorcycle evehicle custom1 custom2" oneway="1"/>
    <type id="highway.motorway_link" priority="9" numLanes="1" speed="22.22" allow="private emergency authority army vip passenger hov taxi bus coach delivery truck trailer motorcycle evehicle custom1 custom2" oneway="1"/>
    <type id="highway.path" priority="1" numLanes="1" speed="5.56" allow="pedestrian bicycle" oneway="0" width="2.00"/>
    <type id="highway.pedestrian" priority="1" numLanes="1" speed="2.78" allow="pedestrian" oneway="1" width="2.00"/>
    <type id="highway.primary" priority="12" numLanes="2" speed="27.78" disallow="tram rail_urban rail rail_electric rail_fast ship" oneway="0"/>
    <type id="highway.primary_link" priority="7" numLanes="1" speed="22.22" disallow="tram rail_urban rail rail_electric rail_fast ship" oneway="0"/>
    <type id="highway.raceway" priority="15" numLanes="2" speed="83.33" allow="vip" oneway="0"/>
    <type id="highway.residential" priority="3" numLanes="1" speed="13.89" disallow="tram rail_urban rail rail_electric rail_fast ship" oneway="0"/>
    <type id="highway.secondary" priority="11" numLanes="1" speed="27.78" disallow="tram rail_urban rail rail_electric rail_fast ship" oneway="0"/>
    <type id="highway.secondary_link" priority="6" numLanes="1" speed="22.22" disallow="tram rail_urban rail rail_electric rail_fast ship" oneway="0"/>
    <type id="highway.service" priority="1" numLanes="1" speed="5.56" allow="pedestrian delivery bicycle" oneway="0"/>
    <type id="highway.stairs" priority="1" numLanes="1" speed="1.39" allow="pedestrian" oneway="1" width="2.00"/>
    <type id="highway.step" priority="1" numLanes="1" speed="1.39" allow="pedestrian" oneway="1" width="2.00"/>
    <type id="highway.steps" priority="1" numLanes="1" speed="1.39" allow="pedestrian" oneway="1" width="2.00"/>
    <type id="highway.tertiary" priority="10" numLanes="1" speed="22.22" disallow="tram rail_urban rail rail_electric rail_fast ship" oneway="0"/>
    <type id="highway.tertiary_link" priority="5" numLanes="1" speed="22.22" disallow="tram rail_urban rail rail_electric rail_fast ship" oneway="0"/>
    <type id="highway.track" priority="1" numLanes="1" speed="5.56" allow="pedestrian motorcycle moped bicycle" oneway="0"/>
    <type id="highway.trunk" priority="13" numLanes="2" speed="27.78" disallow="pedestrian bicycle tram rail_urban rail rail_electric rail_fast ship" oneway="0"/>
    <type id="highway.trunk_link" priority="8" numLanes="1" speed="22.22" disallow="pedestrian bicycle tram rail_urban rail rail_electric rail_fast ship" oneway="0"/>
    <type id="highway.unclassified" priority="4" numLanes="1" speed="13.89" disallow="tram rail_urban rail rail_electric rail_fast ship" oneway="0"/>
    <type id="highway.unsurfaced" priority="1" numLanes="1" speed="8.33" disallow="tram rail_urban rail rail_electric rail_fast ship" oneway="0"/>
    <type id="railway.highspeed" priority="21" numLanes="1" speed="69.44" allow="rail_fast" oneway="1"/>
    <type id="railway.light_rail" priority="19" numLanes="1" speed="27.78" allow="rail_urban" oneway="1"/>
    <type id="railway.preserved" priority="16" numLanes="1" speed="27.78" allow="rail" oneway="1"/>
    <type id="railway.rail" priority="20" numLanes="1" speed="44.44" allow="rail" oneway="1"/>
    <type id="railway.subway" priority="18" numLanes="1" speed="27.78" allow="rail_urban" oneway="1"/>
    <type id="railway.tram" priority="17" numLanes="1" speed="13.89" allow="tram" oneway="1"/>

    <edge id=":1205802579_0" function="internal">
        <lane id=":1205802579_0_0" index="0" allow="pedestrian delivery bicycle" speed="4.99" length="5.06" shape="2522.58,5431.47 2521.19,5431.58 2520.19,5432.10 2519.57,5433.06 2519.35,5434.44"/>
    </edge>
    <edge id=":1205802579_1" function="internal">
        <lane id=":1205802579_1_0" index="0" allow="pedestrian delivery bicycle" speed="5.56" length="9.53" shape="2522.58,5431.47 2513.05,5431.23"/>
    </edge>
    <edge id=":1205802579_2" function="internal">
        <lane id=":1205802579_2_0" index="0" allow="pedestrian delivery bicycle" speed="5.56" length="9.80" shape="2513.00,5428.03 2522.80,5428.28"/>
    </edge>
    <edge id=":1205802579_3" function="internal">
        <lane id=":1205802579_3_0" index="0" allow="pedestrian delivery bicycle" speed="5.56" length="10.37" shape="2513.00,5428.03 2515.82,5428.39 2517.82,5429.58 2519.00,5431.59 2519.35,5434.44"/>
    </edge>
    <edge id=":1205802579_4" function="internal">
        <lane id=":1205802579_4_0" index="0" allow="pedestrian delivery bicycle" speed="5.02" length="5.08" shape="2516.15,5434.38 2515.98,5432.98 2515.41,5431.99 2514.43,5431.40 2513.05,5431.23"/>
    </edge>
    <edge id=":1205802579_5" function="internal">
        <lane id=":1205802579_5_0" index="0" allow="pedestrian delivery bicycle" speed="5.56" length="10.41" shape="2516.15,5434.38 2516.61,5431.54 2517.87,5429.58 2519.93,5428.49 2522.80,5428.28"/>
    </edge>
    <edge id=":1205802579_6" function="internal">
        <lane id=":1205802579_6_0" index="0" allow="pedestrian delivery bicycle" speed="3.65" length="4.67" shape="2516.15,5434.38 2516.97,5433.19 2517.78,5432.81 2518.57,5433.22 2519.35,5434.44"/>
    </edge>
    <edge id=":1205802598_0" function="internal">
        <lane id=":1205802598_0_0" index="0" allow="pedestrian delivery bicycle" speed="3.65" length="4.67" shape="2307.03,5497.95 2306.38,5499.24 2305.63,5499.73 2304.79,5499.43 2303.85,5498.33"/>
    </edge>
    <edge id=":1205802636_0" function="internal">
        <lane id=":1205802636_0_0" index="0" allow="pedestrian delivery bicycle" speed="5.56" length="9.98" shape="2468.63,5437.52 2465.79,5438.35 2463.82,5438.83 2461.81,5439.17 2458.88,5439.56"/>
    </edge>
    <edge id=":1205802636_1" function="internal">
        <lane id=":1205802636_1_0" index="0" allow="pedestrian delivery bicycle" speed="3.65" length="1.44" shape="2468.63,5437.52 2467.25,5437.10"/>
    </edge>
    <edge id=":1205802636_4" function="internal">
        <lane id=":1205802636_4_0" index="0" allow="pedestrian delivery bicycle" speed="3.65" length="3.23" shape="2467.25,5437.10 2466.64,5436.44 2466.80,5435.56 2467.72,5434.46"/>
    </edge>
    <edge id=":1205802636_2" function="internal">
        <lane id=":1205802636_2_0" index="0" allow="pedestrian delivery bicycle" speed="5.56" length="9.47" shape="2458.47,5436.38 2461.25,5436.02 2463.15,5435.70 2465.02,5435.24 2467.72,5434.46"/>
    </edge>
    <edge id=":1205802636_3" function="internal">
        <lane id=":1205802636_3_0" index="0" allow="pedestrian delivery bicycle" speed="3.65" length="1.44" shape="2458.47,5436.38 2459.76,5437.02"/>
    </edge>
    <edge id=":1205802636_5" function="internal">
        <lane id=":1205802636_5_0" index="0" allow="pedestrian delivery bicycle" speed="3.65" length="3.23" shape="2459.76,5437.02 2460.26,5437.77 2459.97,5438.61 2458.88,5439.56"/>
    </edge>
    <edge id=":1205802658_0" function="internal">
        <lane id=":1205802658_0_0" index="0" allow="pedestrian delivery bicycle" speed="5.56" length="1.26" shape="2593.48,5479.68 2593.35,5480.03 2593.25,5480.27 2593.12,5480.49 2592.92,5480.80"/>
    </edge>
    <edge id=":1205802658_1" function="internal">
        <lane id=":1205802658_1_0" index="0" allow="pedestrian delivery bicycle" speed="5.56" length="0.42" shape="2590.27,5479.01 2590.34,5478.91 2590.38,5478.83 2590.41,5478.75 2590.45,5478.64"/>
    </edge>
    <edge id=":1283571915_0" function="internal">
        <lane id=":1283571915_0_0" index="0" allow="pedestrian delivery bicycle" speed="5.56" length="0.83" shape="2648.83,5431.56 2648.60,5431.65 2648.45,5431.73 2648.32,5431.84 2648.16,5432.02"/>
    </edge>
    <edge id=":1283571915_1" function="internal">
        <lane id=":1283571915_1_0" index="0" allow="pedestrian delivery bicycle" speed="5.56" length="2.49" shape="2645.73,5429.94 2646.22,5429.39 2646.61,5429.05 2647.06,5428.81 2647.74,5428.55"/>
    </edge>
    <edge id=":1283571919_0" function="internal">
        <lane id=":1283571919_0_0" index="0" allow="pedestrian delivery bicycle" speed="3.65" length="4.67" shape="2891.63,5433.65 2892.00,5435.05 2891.77,5435.91 2890.95,5436.25 2889.52,5436.05"/>
    </edge>
    <edge id=":1283571926_0" function="internal">
        <lane id=":1283571926_0_0" index="0" allow="pedestrian delivery bicycle" speed="5.56" length="1.69" shape="2640.59,5481.59 2640.10,5481.46 2639.78,5481.34 2639.48,5481.17 2639.07,5480.89"/>
    </edge>
    <edge id=":1283571926_1" function="internal">
        <lane id=":1283571926_1_0" index="0" allow="pedestrian delivery bicycle" speed="5.56" length="0.56" shape="2640.89,5478.26 2641.03,5478.35 2641.13,5478.41 2641.24,5478.45 2641.40,5478.49"/>
    </edge>
    <edge id=":1283571937_0" function="internal">
        <lane id=":1283571937_0_0" index="0" allow="pedestrian delivery bicycle" speed="5.56" length="7.55" shape="2635.49,5477.26 2634.31,5475.44 2633.89,5473.98 2633.84,5472.38 2633.78,5470.13"/>
    </edge>
    <edge id=":1283571937_1" function="internal">
        <lane id=":1283571937_1_0" index="0" allow="pedestrian delivery bicycle" speed="3.71" length="1.40" shape="2635.49,5477.26 2635.81,5475.91"/>
    </edge>
    <edge id=":1283571937_4" function="internal">
        <lane id=":1283571937_4_0" index="0" allow="pedestrian delivery bicycle" speed="3.71" length="3.50" shape="2635.81,5475.91 2635.83,5475.79 2636.47,5475.11 2637.40,5475.21 2638.63,5476.09"/>
    </edge>
    <edge id=":1283571937_2" function="internal">
        <lane id=":1283571937_2_0" index="0" allow="pedestrian delivery bicycle" speed="5.56" length="6.58" shape="2636.97,5469.90 2637.05,5471.86 2637.15,5473.24 2637.57,5474.50 2638.63,5476.09"/>
    </edge>
    <edge id=":1283571937_3" function="internal">
        <lane id=":1283571937_3_0" index="0" allow="pedestrian delivery bicycle" speed="3.65" length="1.44" shape="2636.97,5469.90 2636.26,5471.15"/>
    </edge>
    <edge id=":1283571937_5" function="internal">
        <lane id=":1283571937_5_0" index="0" allow="pedestrian delivery bicycle" speed="3.65" length="3.23" shape="2636.26,5471.15 2635.49,5471.61 2634.66,5471.27 2633.78,5470.13"/>
    </edge>
    <edge id=":1599181887_0" function="internal">
        <lane id=":1599181887_0_0" index="0" allow="pedestrian delivery bicycle" speed="3.65" length="4.67" shape="2776.81,5547.76 2777.22,5549.14 2777.02,5550.01 2776.21,5550.37 2774.77,5550.23"/>
    </edge>
    <edge id=":2002241092_0" function="internal">
        <lane id=":2002241092_0_0" index="0" allow="pedestrian bicycle" speed="2.04" length="1.46" width="1.00" shape="2001.38,5420.93 2000.96,5421.08 2000.68,5421.04 2000.55,5420.79 2000.57,5420.34"/>
    </edge>
    <edge id=":2002244614_0" function="internal">
        <lane id=":2002244614_0_0" index="0" allow="pedestrian bicycle" speed="5.56" length="0.30" width="1.00" shape="2075.75,5336.27 2075.50,5336.10"/>
    </edge>
    <edge id=":2002244614_1" function="internal">
        <lane id=":2002244614_1_0" index="0" allow="pedestrian bicycle" speed="5.56" length="0.30" width="1.00" shape="2076.07,5335.28 2076.32,5335.45"/>
    </edge>
    <edge id=":2110622038_0" function="internal">
        <lane id=":2110622038_0_0" index="0" disallow="tram rail_urban rail rail_electric rail_fast ship" speed="16.67" length="0.30" shape="2325.75,5333.12 2325.66,5333.50"/>
        <lane id=":2110622038_0_1" index="1" disallow="tram rail_urban rail rail_electric rail_fast ship" speed="16.67" length="0.30" shape="2322.62,5332.45 2322.54,5332.77"/>
        <lane id=":2110622038_0_2" index="2" disallow="tram rail_urban rail rail_electric rail_fast ship" speed="16.67" length="0.30" shape="2319.49,5331.78 2319.43,5332.04"/>
        <lane id=":2110622038_0_3" index="3" disallow="tram rail_urban rail rail_electric rail_fast ship" speed="16.67" length="0.30" shape="2316.36,5331.11 2316.31,5331.31"/>
    </edge>
    <edge id=":2385376241_0" function="internal">
        <lane id=":2385376241_0_0" index="0" allow="rail_urban" speed="27.78" length="3.44" shape="2203.20,5393.29 2202.20,5393.18 2201.53,5392.98 2200.88,5392.70 2199.91,5392.35"/>
    </edge>
    <edge id=":2385376241_1" function="internal">
        <lane id=":2385376241_1_0" index="0" allow="pedestrian bicycle" speed="5.56" length="3.13" width="1.00" shape="2200.13,5391.60 2201.03,5391.85 2201.65,5391.99 2202.28,5392.04 2203.21,5392.06"/>
    </edge>
    <edge id=":2385376241_2" function="internal">
        <lane id=":2385376241_2_0" index="0" allow="pedestrian bicycle" speed="2.04" length="1.24" width="1.00" shape="2200.13,5391.60 2200.42,5391.95 2200.47,5392.22 2200.28,5392.43 2200.07,5392.49"/>
    </edge>
    <edge id=":2385376241_5" function="internal">
        <lane id=":2385376241_5_0" index="0" allow="pedestrian bicycle" speed="2.04" length="0.22" width="1.00" shape="2200.07,5392.49 2199.85,5392.56"/>
    </edge>
    <edge id=":2385376241_3" function="internal">
        <lane id=":2385376241_3_0" index="0" allow="pedestrian bicycle" speed="5.56" length="3.13" width="1.00" shape="2202.92,5393.06 2202.00,5393.03 2201.36,5392.97 2200.74,5392.82 2199.85,5392.56"/>
    </edge>
    <edge id=":2385376241_4" function="internal">
        <lane id=":2385376241_4_0" index="0" allow="pedestrian bicycle" speed="2.07" length="0.23" width="1.00" shape="2202.92,5393.06 2202.77,5392.88"/>
    </edge>
    <edge id=":2385376241_6" function="internal">
        <lane id=":2385376241_6_0" index="0" allow="pedestrian bicycle" speed="2.07" length="1.29" width="1.00" shape="2202.77,5392.88 2202.62,5392.70 2202.57,5392.42 2202.77,5392.20 2203.21,5392.06"/>
    </edge>
    <edge id=":2385376261_0" function="internal">
        <lane id=":2385376261_0_0" index="0" allow="pedestrian bicycle" speed="5.56" length="5.63" width="1.00" shape="2298.68,5391.16 2297.78,5392.32 2296.72,5393.19 2295.49,5393.78 2294.10,5394.09"/>
    </edge>
    <edge id=":2385376261_1" function="internal">
        <lane id=":2385376261_1_0" index="0" allow="pedestrian bicycle" speed="2.04" length="0.73" width="1.00" shape="2298.68,5391.16 2298.27,5391.34 2297.99,5391.32"/>
    </edge>
    <edge id=":2385376261_4" function="internal">
        <lane id=":2385376261_4_0" index="0" allow="pedestrian bicycle" speed="2.04" length="0.73" width="1.00" shape="2297.99,5391.32 2297.85,5391.08 2297.84,5390.63"/>
    </edge>
    <edge id=":2385376261_2" function="internal">
        <lane id=":2385376261_2_0" index="0" allow="pedestrian bicycle" speed="5.56" length="5.06" width="1.00" shape="2293.64,5393.14 2294.96,5392.86 2296.09,5392.35 2297.06,5391.60 2297.84,5390.63"/>
    </edge>
    <edge id=":2385376261_3" function="internal">
        <lane id=":2385376261_3_0" index="0" allow="pedestrian bicycle" speed="2.08" length="0.77" width="1.00" shape="2293.64,5393.14 2294.11,5393.21 2294.35,5393.39"/>
    </edge>
    <edge id=":2385376261_5" function="internal">
        <lane id=":2385376261_5_0" index="0" allow="pedestrian bicycle" speed="2.08" length="0.77" width="1.00" shape="2294.35,5393.39 2294.34,5393.68 2294.10,5394.09"/>
    </edge>
    <edge id=":2385376263_0" function="internal">
        <lane id=":2385376263_0_0" index="0" allow="pedestrian bicycle" speed="3.39" length="2.30" width="1.00" shape="2301.13,5383.47 2300.67,5383.53 2300.58,5383.97 2300.61,5384.62 2300.54,5385.35"/>
    </edge>
    <edge id=":2385376263_1" function="internal">
        <lane id=":2385376263_1_0" index="0" allow="pedestrian bicycle" speed="2.04" length="1.46" width="1.00" shape="2301.13,5383.47 2300.82,5383.14 2300.76,5382.87 2300.93,5382.65 2301.35,5382.49"/>
    </edge>
    <edge id=":2385376263_2" function="internal">
        <lane id=":2385376263_2_0" index="0" allow="pedestrian bicycle" speed="4.01" length="3.35" width="1.00" shape="2299.58,5385.07 2299.99,5383.86 2300.42,5383.03 2300.88,5382.57 2301.35,5382.49"/>
    </edge>
    <edge id=":2385376263_3" function="internal">
        <lane id=":2385376263_3_0" index="0" allow="pedestrian bicycle" speed="2.04" length="1.46" width="1.00" shape="2299.58,5385.07 2299.92,5384.78 2300.20,5384.73 2300.40,5384.92 2300.54,5385.35"/>
    </edge>
    <edge id=":2385376266_0" function="internal">
        <lane id=":2385376266_0_0" index="0" allow="pedestrian bicycle" speed="5.56" length="6.28" width="1.00" shape="2339.10,5387.39 2337.63,5388.56 2336.61,5389.43 2335.49,5390.01 2333.71,5390.26"/>
    </edge>
    <edge id=":2385376266_1" function="internal">
        <lane id=":2385376266_1_0" index="0" allow="pedestrian bicycle" speed="2.04" length="1.18" width="1.00" shape="2339.10,5387.39 2338.65,5387.40 2338.41,5387.26 2338.37,5386.99 2338.43,5386.83"/>
    </edge>
    <edge id=":2385376266_4" function="internal">
        <lane id=":2385376266_4_0" index="0" allow="pedestrian bicycle" speed="2.04" length="0.28" width="1.00" shape="2338.43,5386.83 2338.53,5386.57"/>
    </edge>
    <edge id=":2385376266_2" function="internal">
        <lane id=":2385376266_2_0" index="0" allow="pedestrian bicycle" speed="5.56" length="6.12" width="1.00" shape="2333.23,5389.28 2334.97,5389.05 2336.08,5388.52 2337.09,5387.69 2338.53,5386.57"/>
    </edge>
    <edge id=":2385376266_3" function="internal">
        <lane id=":2385376266_3_0" index="0" allow="pedestrian bicycle" speed="2.10" length="0.80" width="1.00" shape="2333.23,5389.28 2333.72,5389.35 2333.96,5389.53"/>
    </edge>
    <edge id=":2385376266_5" function="internal">
        <lane id=":2385376266_5_0" index="0" allow="pedestrian bicycle" speed="2.10" length="0.80" width="1.00" shape="2333.96,5389.53 2333.96,5389.84 2333.71,5390.26"/>
    </edge>
    <edge id=":2385376270_0" function="internal">
        <lane id=":2385376270_0_0" index="0" allow="pedestrian bicycle" speed="5.54" length="9.72" width="1.00" shape="2355.10,5382.50 2353.11,5382.23 2349.75,5381.77 2346.69,5381.21 2345.63,5380.63"/>
    </edge>
    <edge id=":2385376270_1" function="internal">
        <lane id=":2385376270_1_0" index="0" allow="pedestrian bicycle" speed="2.04" length="0.73" width="1.00" shape="2355.10,5382.50 2354.78,5382.18 2354.71,5381.91"/>
    </edge>
    <edge id=":2385376270_4" function="internal">
        <lane id=":2385376270_4_0" index="0" allow="pedestrian bicycle" speed="2.04" length="0.73" width="1.00" shape="2354.71,5381.91 2354.88,5381.69 2355.30,5381.52"/>
    </edge>
    <edge id=":2385376270_2" function="internal">
        <lane id=":2385376270_2_0" index="0" allow="pedestrian bicycle" speed="5.56" length="9.92" width="1.00" shape="2345.78,5378.93 2347.41,5378.99 2350.42,5379.87 2353.49,5380.93 2355.30,5381.52"/>
    </edge>
    <edge id=":2385376270_3" function="internal">
        <lane id=":2385376270_3_0" index="0" allow="pedestrian bicycle" speed="5.56" length="1.24" width="1.00" shape="2345.78,5378.93 2346.38,5379.41 2346.55,5379.86"/>
    </edge>
    <edge id=":2385376270_5" function="internal">
        <lane id=":2385376270_5_0" index="0" allow="pedestrian bicycle" speed="5.56" length="1.24" width="1.00" shape="2346.55,5379.86 2346.30,5380.26 2345.63,5380.63"/>
    </edge>
    <edge id=":2385376282_0" function="internal">
        <lane id=":2385376282_0_0" index="0" allow="pedestrian bicycle" speed="5.56" length="4.55" width="1.00" shape="2551.22,5381.09 2549.93,5380.69 2549.03,5380.49 2548.10,5380.42 2546.75,5380.41"/>
    </edge>
    <edge id=":2385376282_1" function="internal">
        <lane id=":2385376282_1_0" index="0" allow="pedestrian bicycle" speed="2.04" length="1.23" width="1.00" shape="2551.22,5381.09 2550.94,5380.73 2550.90,5380.46 2551.09,5380.26 2551.31,5380.20"/>
    </edge>
    <edge id=":2385376282_4" function="internal">
        <lane id=":2385376282_4_0" index="0" allow="pedestrian bicycle" speed="2.04" length="0.23" width="1.00" shape="2551.31,5380.20 2551.53,5380.14"/>
    </edge>
    <edge id=":2385376282_2" function="internal">
        <lane id=":2385376282_2_0" index="0" allow="pedestrian bicycle" speed="5.56" length="4.86" width="1.00" shape="2546.76,5379.41 2548.20,5379.42 2549.19,5379.50 2550.15,5379.71 2551.53,5380.14"/>
    </edge>
    <edge id=":2385376282_3" function="internal">
        <lane id=":2385376282_3_0" index="0" allow="pedestrian bicycle" speed="2.04" length="1.25" width="1.00" shape="2546.76,5379.41 2547.13,5379.66 2547.26,5379.91 2547.13,5380.16 2546.93,5380.30"/>
    </edge>
    <edge id=":2385376282_5" function="internal">
        <lane id=":2385376282_5_0" index="0" allow="pedestrian bicycle" speed="2.04" length="0.21" width="1.00" shape="2546.93,5380.30 2546.75,5380.41"/>
    </edge>
    <edge id=":2385376299_0" function="internal">
        <lane id=":2385376299_0_0" index="0" allow="pedestrian bicycle" speed="5.56" length="4.47" width="1.00" shape="2609.04,5391.04 2609.03,5389.71 2608.96,5388.80 2608.73,5387.92 2608.26,5386.68"/>
    </edge>
    <edge id=":2385376299_1" function="internal">
        <lane id=":2385376299_1_0" index="0" allow="pedestrian bicycle" speed="2.04" length="1.24" width="1.00" shape="2609.04,5391.04 2609.29,5390.66 2609.54,5390.53 2609.79,5390.66 2609.92,5390.85"/>
    </edge>
    <edge id=":2385376299_4" function="internal">
        <lane id=":2385376299_4_0" index="0" allow="pedestrian bicycle" speed="2.04" length="0.22" width="1.00" shape="2609.92,5390.85 2610.04,5391.03"/>
    </edge>
    <edge id=":2385376299_2" function="internal">
        <lane id=":2385376299_2_0" index="0" allow="pedestrian bicycle" speed="5.56" length="4.85" width="1.00" shape="2609.19,5386.31 2609.70,5387.65 2609.95,5388.60 2610.03,5389.59 2610.04,5391.03"/>
    </edge>
    <edge id=":2385376299_3" function="internal">
        <lane id=":2385376299_3_0" index="0" allow="pedestrian bicycle" speed="2.04" length="1.27" width="1.00" shape="2609.19,5386.31 2609.10,5386.75 2608.91,5386.96 2608.64,5386.94 2608.42,5386.79"/>
    </edge>
    <edge id=":2385376299_5" function="internal">
        <lane id=":2385376299_5_0" index="0" allow="pedestrian bicycle" speed="2.04" length="0.19" width="1.00" shape="2608.42,5386.79 2608.26,5386.68"/>
    </edge>
    <edge id=":2385376316_0" function="internal">
        <lane id=":2385376316_0_0" index="0" allow="pedestrian bicycle" speed="6.11" length="5.46" width="1.00" shape="2603.09,5439.84 2602.07,5441.04 2601.45,5442.25 2601.23,5443.49 2601.42,5444.75"/>
    </edge>
    <edge id=":2385376316_1" function="internal">
        <lane id=":2385376316_1_0" index="0" allow="pedestrian bicycle" speed="5.56" length="6.69" width="1.00" shape="2603.09,5439.84 2601.66,5441.22 2600.65,5442.14 2599.61,5443.01 2598.06,5444.26"/>
    </edge>
    <edge id=":2385376316_2" function="internal">
        <lane id=":2385376316_2_0" index="0" allow="pedestrian bicycle" speed="2.04" length="1.46" width="1.00" shape="2603.09,5439.84 2602.64,5439.92 2602.38,5439.83 2602.29,5439.56 2602.39,5439.12"/>
    </edge>
    <edge id=":2385376316_3" function="internal">
        <lane id=":2385376316_3_0" index="0" allow="pedestrian bicycle" speed="4.62" length="4.18" width="1.00" shape="2598.77,5439.74 2599.51,5440.29 2600.36,5440.37 2601.32,5439.98 2602.39,5439.12"/>
    </edge>
    <edge id=":2385376316_4" function="internal">
        <lane id=":2385376316_4_0" index="0" disallow="tram rail_urban rail rail_electric rail_fast ship" speed="13.89" length="5.74" shape="2598.77,5439.74 2599.86,5441.04 2600.49,5442.03 2600.92,5443.12 2601.42,5444.75"/>
    </edge>
    <edge id=":2385376316_5" function="internal">
        <lane id=":2385376316_5_0" index="0" allow="pedestrian bicycle" speed="5.08" length="5.26" width="1.00" shape="2598.77,5439.74 2599.49,5440.89 2599.61,5442.02 2599.14,5443.15 2598.06,5444.26"/>
    </edge>
    <edge id=":2385376316_6" function="internal">
        <lane id=":2385376316_6_0" index="0" allow="pedestrian bicycle" speed="5.56" length="6.60" width="1.00" shape="2597.44,5443.48 2598.96,5442.25 2599.99,5441.39 2600.98,5440.48 2602.39,5439.12"/>
    </edge>
    <edge id=":2385376316_7" function="internal">
        <lane id=":2385376316_7_0" index="0" allow="pedestrian bicycle" speed="4.33" length="5.35" width="1.00" shape="2597.44,5443.48 2598.77,5442.69 2599.87,5442.64 2600.76,5443.32 2601.42,5444.75"/>
    </edge>
    <edge id=":2385376316_8" function="internal">
        <lane id=":2385376316_8_0" index="0" allow="pedestrian bicycle" speed="2.04" length="1.46" width="1.00" shape="2597.44,5443.48 2597.89,5443.44 2598.14,5443.55 2598.20,5443.83 2598.06,5444.26"/>
    </edge>
    <edge id=":2385376318_0" function="internal">
        <lane id=":2385376318_0_0" index="0" allow="pedestrian bicycle" speed="5.56" length="4.36" width="1.00" shape="2595.83,5447.42 2595.79,5446.30 2596.02,5445.28 2596.54,5444.37 2597.34,5443.56"/>
    </edge>
    <edge id=":2385376318_1" function="internal">
        <lane id=":2385376318_1_0" index="0" allow="pedestrian bicycle" speed="2.04" length="0.73" width="1.00" shape="2595.83,5447.42 2596.02,5447.01 2596.25,5446.84"/>
    </edge>
    <edge id=":2385376318_4" function="internal">
        <lane id=":2385376318_4_0" index="0" allow="pedestrian bicycle" speed="2.04" length="0.73" width="1.00" shape="2596.25,5446.84 2596.51,5446.93 2596.82,5447.26"/>
    </edge>
    <edge id=":2385376318_2" function="internal">
        <lane id=":2385376318_2_0" index="0" allow="pedestrian bicycle" speed="4.93" length="3.30" width="1.00" shape="2597.97,5444.33 2597.36,5444.95 2596.96,5445.64 2596.79,5446.41 2596.82,5447.26"/>
    </edge>
    <edge id=":2385376318_3" function="internal">
        <lane id=":2385376318_3_0" index="0" allow="pedestrian bicycle" speed="2.04" length="1.11" width="1.00" shape="2597.97,5444.33 2597.52,5444.37 2597.27,5444.26 2597.21,5443.99 2597.24,5443.88"/>
    </edge>
    <edge id=":2385376318_5" function="internal">
        <lane id=":2385376318_5_0" index="0" allow="pedestrian bicycle" speed="2.04" length="0.35" width="1.00" shape="2597.24,5443.88 2597.34,5443.56"/>
    </edge>
    <edge id=":246158631_0" function="internal">
        <lane id=":246158631_0_0" index="0" disallow="tram rail_urban rail rail_electric rail_fast ship" speed="6.56" length="7.84" shape="2628.20,5399.10 2626.22,5399.40 2624.67,5400.29 2623.56,5401.78 2622.87,5403.86"/>
    </edge>
    <edge id=":246158631_1" function="internal">
        <lane id=":246158631_1_0" index="0" disallow="tram rail_urban rail rail_electric rail_fast ship" speed="13.89" length="16.27" shape="2628.20,5395.90 2623.39,5396.14 2620.12,5396.69 2616.85,5397.24 2612.04,5397.48"/>
        <lane id=":246158631_1_1" index="1" disallow="tram rail_urban rail rail_electric rail_fast ship" speed="13.89" length="16.27" shape="2628.20,5392.70 2623.39,5392.94 2620.12,5393.49 2616.85,5394.04 2612.04,5394.28"/>
    </edge>
    <edge id=":246158631_3" function="internal">
        <lane id=":246158631_3_0" index="0" disallow="tram rail_urban rail rail_electric rail_fast ship" speed="11.11" length="13.96" shape="2626.49,5390.06 2625.87,5394.23 2624.97,5397.00 2623.94,5399.75 2622.87,5403.86"/>
        <lane id=":246158631_3_1" index="1" disallow="tram rail_urban rail rail_electric rail_fast ship" speed="11.11" length="13.96" shape="2623.30,5389.80 2622.69,5393.86 2621.80,5396.56 2620.78,5399.24 2619.73,5403.24"/>
        <lane id=":246158631_3_2" index="2" disallow="tram rail_urban rail rail_electric rail_fast ship" speed="11.11" length="13.96" shape="2620.11,5389.53 2619.51,5393.49 2618.63,5396.12 2617.62,5398.72 2616.59,5402.62"/>
    </edge>
    <edge id=":246158631_6" function="internal">
        <lane id=":246158631_6_0" index="0" disallow="tram rail_urban rail rail_electric rail_fast ship" speed="6.29" length="7.84" shape="2616.92,5389.26 2616.46,5391.46 2615.49,5393.03 2614.02,5393.97 2612.04,5394.28"/>
    </edge>
    <edge id=":246158638_0" function="internal">
        <lane id=":246158638_0_0" index="0" disallow="tram rail_urban rail rail_electric rail_fast ship" speed="13.89" length="17.30" shape="2330.88,5396.99 2325.66,5396.98 2322.07,5396.85 2318.52,5396.41 2313.39,5395.45"/>
        <lane id=":246158638_0_1" index="1" disallow="tram rail_urban rail rail_electric rail_fast ship" speed="13.89" length="17.30" shape="2330.89,5393.79 2325.85,5393.78 2322.39,5393.66 2318.97,5393.24 2314.02,5392.31"/>