<?xml version="1.0" encoding="UTF-8"?>
<configuration>
 <input>
  <net-file value="pioneer_MRT_area.net.xml"/>
  <route-files value="pioneer_MRT_area.rou.xml"/>
  <additional-files value="pioneer_MRT_area.poly.xml"/>
 </input>
 <time>
  <begin value="0"/>
  <end value="10000"/>
  <step-length value="0.1"/>
 </time>
</configuration>