<?xml version="1.0" encoding="UTF-8"?>

<!-- generated on 10/30/20 15:59:20 by SUMO duarouter Version 0.32.0
<?xml version="1.0" encoding="UTF-8"?>

<configuration xmlns:xsi="http://www.w3.org/2001/XMLSchema-instance" xsi:noNamespaceSchemaLocation="http://sumo.dlr.de/xsd/duarouterConfiguration.xsd">

    <input>
        <net-file value="pioneer_MRT_area.net.xml"/>
        <route-files value="trips.trips.xml"/>
    </input>

    <output>
        <output-file value="pioneer_MRT_area.rou.xml"/>
        <alternatives-output value="pioneer_MRT_area.rou.alt.xml"/>
    </output>

    <processing>
        <ignore-errors value="true"/>
    </processing>

    <time>
        <begin value="0"/>
        <end value="100.0"/>
    </time>

    <report>
        <no-warnings value="true"/>
        <no-step-log value="true"/>
    </report>

</configuration>
-->

<routes xmlns:xsi="http://www.w3.org/2001/XMLSchema-instance" xsi:noNamespaceSchemaLocation="http://sumo.dlr.de/xsd/routes_file.xsd">
    <vehicle id="1" depart="1.00">
        <route edges="655680114 655233246 647087519#0 647087519#1 175959491#0 175959491#1"/>
    </vehicle>
    <vehicle id="2" depart="2.00">
        <route edges="251582083#1 655232306 795202558 251582080#0 251582080#1 537088432 482056345 251582078 175959491#0 175959491#1 666967555 251582082#0 251582082#1 251582189 795202555 481621506"/>
    </vehicle>
    <vehicle id="3" depart="3.00">
        <route edges="175959491#1"/>
    </vehicle>
    <vehicle id="6" depart="6.00">
        <route edges="795211462 795211461 22886852#0 22886852#1 75326374 251582079 251582083#0 251582083#1"/>
    </vehicle>
    <vehicle id="7" depart="7.00">
        <route edges="251582083#1 655232306 795202558 251582080#0 251582080#1 537088432 482056345 251582078 175959491#0 175959491#1 666967555 251582082#0 251582082#1 711227438#0 711227438#1 537088434 75326374 251582121#0 251582121#1"/>
    </vehicle>
    <vehicle id="8" depart="8.00">
        <route edges="251582083#1 655232306 795202558 251582080#0 251582080#1 537088432 482056345 251582078 175959491#0 175959491#1 666967555 251582082#0 251582082#1 711227438#0 711227438#1 537088434 75326374 251582121#0 251582121#1"/>
    </vehicle>
    <vehicle id="9" depart="9.00">
        <route edges="22886852#0 22886852#1 75326374 251582079 251582083#0 251582083#1 655232306 795202558 251582191#0 251582191#1"/>
    </vehicle>
    <vehicle id="10" depart="10.00">
        <route edges="711227438#0 711227438#1 537088434 75326374 251582079 251582083#0 251582083#1 655232306 795202558 251582080#0 251582080#1 537088432 251582077#0 251582077#1"/>
    </vehicle>
    <vehicle id="12" depart="12.00">
        <route edges="481621507#0"/>
    </vehicle>
    <vehicle id="13" depart="13.00">
        <route edges="647087519#0 647087519#1 175959491#0 175959491#1"/>
    </vehicle>
    <vehicle id="15" depart="15.00">
        <route edges="795202553 540472397#0 540472397#1 251582078 175959491#0 175959491#1 666967555 251582082#0 251582082#1 711227438#0 711227438#1 537088434 75326374 251582079 251582083#0 251582083#1"/>
    </vehicle>
    <vehicle id="19" depart="19.00">
        <route edges="481621507#0 481621507#1 251582116 75326369#0 75326369#1 481621506"/>
    </vehicle>
    <vehicle id="20" depart="20.00">
        <route edges="655680114 655233246 647087519#0 647087519#1 175959491#0 175959491#1 666967555 251582082#0 251582082#1 711227438#0 711227438#1 537088434 75326374"/>
    </vehicle>
    <vehicle id="21" depart="21.00">
        <route edges="481621507#0 481621507#1 251582116 75326369#0 75326369#1 481621506"/>
    </vehicle>
    <vehicle id="22" depart="22.00">
        <route edges="655233246 647087519#0 647087519#1 175959491#0 175959491#1 666967555 251582082#0 251582082#1 711227438#0 711227438#1 537088434 75326374 251582079 251582083#0 251582083#1"/>
    </vehicle>
    <vehicle id="24" depart="24.00">
        <route edges="251582080#0 251582080#1 537088432 482056345 251582078 175959491#0 175959491#1"/>
    </vehicle>
    <vehicle id="26" depart="26.00">
        <route edges="175959491#1 666967555 251582082#0 251582082#1"/>
    </vehicle>
    <vehicle id="28" depart="28.00">
        <route edges="795207464 481621507#0 481621507#1 251582083#0 251582083#1 655232306 795202558 251582080#0 251582080#1 537088432 482056345 251582078 175959491#0 175959491#1"/>
    </vehicle>
    <vehicle id="29" depart="29.00">
        <route edges="175959491#1"/>
    </vehicle>
    <vehicle id="30" depart="30.00">
        <route edges="711227438#0 711227438#1 537088434 75326374 251582079 251582083#0 251582083#1"/>
    </vehicle>
    <vehicle id="31" depart="31.00">
        <route edges="644131144#1 644131144#2 630410466#0 630410466#1 482056345 251582078 175959491#0 175959491#1"/>
    </vehicle>
    <vehicle id="36" depart="36.00">
        <route edges="481621507#0 481621507#1 251582083#0 251582083#1"/>
    </vehicle>
    <vehicle id="37" depart="37.00">
        <route edges="175959491#1 666967555 251582082#0 251582082#1 711227438#0 711227438#1 537088434 75326374 251582079 251582083#0 251582083#1"/>
    </vehicle>
    <vehicle id="38" depart="38.00">
        <route edges="655680114 655233246 647087519#0 647087519#1 175959491#0 175959491#1 666967555 251582082#0 251582082#1 251582189 795202555 481621506"/>
    </vehicle>
    <vehicle id="39" depart="39.00">
        <route edges="795211461 22886852#0 22886852#1 75326374 251582079 251582083#0 251582083#1 655232306 795202558 251582080#0 251582080#1 537088432 482056345 251582078 175959491#0 175959491#1"/>
    </vehicle>
    <vehicle id="42" depart="42.00">
        <route edges="630410466#0"/>
    </vehicle>
    <vehicle id="43" depart="43.00">
        <route edges="251582083#1 655232306 795202558 251582080#0 251582080#1 537088432 251582077#0 251582077#1"/>
    </vehicle>
    <vehicle id="44" depart="44.00">
        <route edges="251582083#1 655232306 795202558 251582080#0 251582080#1 537088432 482056345 540472396#0 540472396#1 635338458"/>
    </vehicle>
    <vehicle id="45" depart="45.00">
        <route edges="481621507#0 481621507#1 251582116 75326369#0 75326369#1 481621506"/>
    </vehicle>
    <vehicle id="47" depart="47.00">
        <route edges="175959491#1"/>
    </vehicle>
    <vehicle id="48" depart="48.00">
        <route edges="175959491#1 666967555 251582082#0 251582082#1 711227438#0 711227438#1 537088434 75326374 251582079 251582083#0 251582083#1 655232306 795202558 251582080#0 251582080#1 537088432 251582077#0 251582077#1"/>
    </vehicle>
    <vehicle id="49" depart="49.00">
        <route edges="175959491#1 666967555 251582082#0 251582082#1 711227438#0 711227438#1 537088434 75326374 251582079 251582083#0 251582083#1 655232306 795202558 251582080#0 251582080#1 537088432 251582077#0 251582077#1"/>
    </vehicle>
    <vehicle id="50" depart="50.00">
        <route edges="795202553 540472397#0 540472397#1 251582078 175959491#0 175959491#1 666967555 251582082#0 251582082#1 251582189"/>
    </vehicle>
    <vehicle id="51" depart="51.00">
        <route edges="445282929 537088432 482056345 251582078 175959491#0 175959491#1"/>
    </vehicle>
    <vehicle id="54" depart="54.00">
        <route edges="630410466#0 630410466#1 482056345 251582078 175959491#0 175959491#1 666967555 251582082#0 251582082#1 711227438#0 711227438#1 537088434 75326374 251582121#0 251582121#1"/>
    </vehicle>
    <vehicle id="56" depart="56.00">
        <route edges="795202553 540472397#0 540472397#1 251582078 175959491#0 175959491#1 666967555 251582082#0 251582082#1 711227438#0 711227438#1 537088434 75326374 251582079 251582083#0 251582083#1"/>
    </vehicle>
    <vehicle id="57" depart="57.00">
        <route edges="655680114 655233246 647087519#0 647087519#1 175959491#0 175959491#1 666967555 251582082#0 251582082#1"/>
    </vehicle>
    <vehicle id="58" depart="58.00">
        <route edges="175959491#1 666967555 251582082#0 251582082#1 251582189 795202555 481621506"/>
    </vehicle>
    <vehicle id="59" depart="59.00">
        <route edges="630410466#0 630410466#1 482056345 251582078 175959491#0 175959491#1 666967555 251582082#0 251582082#1 711227438#0 711227438#1 537088434 75326374 251582079 251582083#0 251582083#1"/>
    </vehicle>
    <vehicle id="60" depart="60.00">
        <route edges="251582083#1 655232306 795202558 251582080#0"/>
    </vehicle>
    <vehicle id="61" depart="61.00">
        <route edges="481621507#0 481621507#1 251582083#0 251582083#1 655232306 795202558 251582080#0 251582080#1 537088432 482056345 251582078 175959491#0"/>
    </vehicle>
    <vehicle id="62" depart="62.00">
        <route edges="175959491#1 666967555 251582082#0 251582082#1 711227438#0 711227438#1 537088434 75326374 251582079 251582083#0 251582083#1 655232306 795202558 251582080#0 251582080#1 537088432 482056345 251582078 445282929 251582069#0 251582069#1"/>
    </vehicle>
    <vehicle id="63" depart="63.00">
        <route edges="251582083#1 655232306 795202558 251582080#0 251582080#1 537088432 482056345 251582078 175959491#0 175959491#1 666967555 251582082#0 251582082#1 251582189 795202555 481621506"/>
    </vehicle>
    <vehicle id="64" depart="64.00">
        <route edges="22886852#0 22886852#1 75326374 251582079 251582083#0 251582083#1 655232306 795202558 251582080#0 251582080#1 537088432 482056345 251582078 175959491#0 175959491#1"/>
    </vehicle>
    <vehicle id="66" depart="66.00">
        <route edges="647087519#0 647087519#1 175959491#0 175959491#1 666967555 251582082#0 251582082#1 711227438#0 711227438#1 537088434 75326374 251582079 251582083#0 251582083#1"/>
    </vehicle>
    <vehicle id="67" depart="67.00">
        <route edges="251582083#1"/>
    </vehicle>
    <vehicle id="68" depart="68.00">
        <route edges="251582082#1 711227438#0 711227438#1 537088434 75326374 251582079 251582083#0 251582083#1 655232306 795202558 251582080#0 251582080#1 537088432 482056345 251582078 175959491#0 175959491#1"/>
    </vehicle>
    <vehicle id="71" depart="71.00">
        <route edges="175959491#1 666967555 251582082#0 251582082#1 711227438#0 711227438#1 537088434 75326374 251582079 251582083#0 251582083#1"/>
    </vehicle>
    <vehicle id="72" depart="72.00">
        <route edges="630410466#0 630410466#1 482056345 251582078 445282929 251582069#0 251582069#1 630410467 644131147"/>
    </vehicle>
    <vehicle id="73" depart="73.00">
        <route edges="655232306 795202558 251582080#0 251582080#1 537088432 482056345 251582078 175959491#0 175959491#1 666967555 251582082#0 251582082#1 711227438#0 711227438#1 537088434 75326374 251582121#0 251582121#1"/>
    </vehicle>
    <vehicle id="74" depart="74.00">
        <route edges="482056345 251582078 175959491#0 175959491#1 666967555 251582082#0 251582082#1 711227438#0 711227438#1 537088434 75326374 251582121#0 251582121#1"/>
    </vehicle>
    <vehicle id="75" depart="75.00">
        <route edges="175959491#1 666967555 251582082#0 251582082#1 711227438#0 711227438#1 537088434 75326374 251582079 251582083#0 251582083#1"/>
    </vehicle>
    <vehicle id="76" depart="76.00">
        <route edges="22886852#0 22886852#1 75326374 251582079 251582083#0 251582083#1"/>
    </vehicle>
    <vehicle id="78" depart="78.00">
        <route edges="251582082#1 711227438#0 711227438#1 537088434 75326374 251582121#0 251582121#1"/>
    </vehicle>
    <vehicle id="79" depart="79.00">
        <route edges="644131144#0 644131144#1 644131144#2 630410466#0 630410466#1 482056345 251582078 175959491#0 175959491#1"/>
    </vehicle>
    <vehicle id="80" depart="80.00">
        <route edges="175959491#1 666967555 251582082#0 251582082#1 711227438#0 711227438#1 537088434 75326374 251582079 251582083#0 251582083#1 655232306 795202558 251582080#0 251582080#1 537088432 482056345 540472396#0 540472396#1 635338458 655682094"/>
    </vehicle>
    <vehicle id="81" depart="81.00">
        <route edges="644131144#0 644131144#1 644131144#2 630410466#0 630410466#1 482056345 251582078 175959491#0 175959491#1 666967555 251582082#0 251582082#1 711227438#0 711227438#1 537088434 75326374 251582079 251582083#0 251582083#1 655232306 795202558"/>
    </vehicle>
    <vehicle id="82" depart="82.00">
        <route edges="630410466#0 630410466#1 482056345 251582078 175959491#0 175959491#1 666967555 251582082#0 251582082#1 711227438#0 711227438#1 537088434 75326374 251582079 251582083#0 251582083#1"/>
    </vehicle>
    <vehicle id="83" depart="83.00">
        <route edges="655233246 647087519#0 647087519#1 175959491#0 175959491#1 666967555 251582082#0 251582082#1 711227438#0 711227438#1 537088434 75326374 251582079 251582083#0 251582083#1"/>
    </vehicle>
    <vehicle id="84" depart="84.00">
        <route edges="175959491#1 666967555 251582082#0 251582082#1 711227438#0 711227438#1 537088434 75326374 251582121#0 251582121#1"/>
    </vehicle>
    <vehicle id="85" depart="85.00">
        <route edges="251582083#1 655232306 795202558 251582080#0 251582080#1 537088432 482056345 251582078 175959491#0 175959491#1 666967555 251582082#0 251582082#1 711227438#0 711227438#1 537088434 75326374 251582121#0"/>
    </vehicle>
    <vehicle id="86" depart="86.00">
        <route edges="251582083#1 655232306 795202558 251582080#0 251582080#1 537088432 251582077#0 251582077#1"/>
    </vehicle>
    <vehicle id="87" depart="87.00">
        <route edges="795202558 251582080#0 251582080#1 537088432 482056345 251582078 175959491#0 175959491#1"/>
    </vehicle>
    <vehicle id="88" depart="88.00">
        <route edges="481621507#0 481621507#1 251582083#0 251582083#1 655232306 795202558 251582080#0 251582080#1 537088432 251582077#0 251582077#1"/>
    </vehicle>
    <vehicle id="89" depart="89.00">
        <route edges="251582083#1"/>
    </vehicle>
    <vehicle id="90" depart="90.00">
        <route edges="175959491#1 666967555 251582082#0 251582082#1 711227438#0 711227438#1 537088434 75326374 251582079 251582083#0 251582083#1 655232306 795202558 251582080#0 251582080#1 537088432 251582077#0 251582077#1"/>
    </vehicle>
    <vehicle id="91" depart="91.00">
        <route edges="655233246 647087519#0 647087519#1 175959491#0 175959491#1 666967555 251582082#0 251582082#1 711227438#0"/>
    </vehicle>
    <vehicle id="93" depart="93.00">
        <route edges="251582082#1 711227438#0 711227438#1 537088434 75326374 251582079 251582083#0 251582083#1"/>
    </vehicle>
    <vehicle id="94" depart="94.00">
        <route edges="175959491#1 666967555 251582082#0 251582082#1 711227438#0 711227438#1 537088434 75326374 251582121#0 251582121#1"/>
    </vehicle>
    <vehicle id="95" depart="95.00">
        <route edges="795202558 251582080#0 251582080#1 537088432 482056345 251582078 175959491#0 175959491#1 666967555 251582082#0 251582082#1 251582189 795202555 481621506"/>
    </vehicle>
    <vehicle id="97" depart="97.00">
        <route edges="251582083#0 251582083#1 655232306 795202558 251582080#0 251582080#1 537088432 251582077#0 251582077#1"/>
    </vehicle>
    <vehicle id="99" depart="99.00">
        <route edges="175959491#1 666967555 251582082#0 251582082#1 711227438#0 711227438#1 537088434 75326374 251582079 251582083#0 251582083#1 655232306 795202558 251582080#0 251582080#1 537088432 482056345 540472396#0 540472396#1"/>
    </vehicle>
</routes>
