<?xml version="1.0" encoding="UTF-8"?>

<!-- generated on 2023-03-16 17:41:02 by Eclipse SUMO polyconvert Version 1.14.1
<configuration xmlns:xsi="http://www.w3.org/2001/XMLSchema-instance" xsi:noNamespaceSchemaLocation="http://sumo.dlr.de/xsd/polyconvertConfiguration.xsd">

    <input>
        <net-file value="pioneer_MRT_area.net.xml"/>
        <osm-files value="pioneer_MRT_area.osm"/>
        <type-file value="osmPolyconvert.typ.xml"/>
    </input>

    <output>
        <output-file value="pioneer_MRT_area.poly.xml"/>
    </output>

</configuration>
-->

<additional xmlns:xsi="http://www.w3.org/2001/XMLSchema-instance" xsi:noNamespaceSchemaLocation="http://sumo.dlr.de/xsd/additional_file.xsd">
    <location netOffset="-352611.22,-142476.30" convBoundary="0.00,0.00,16104.64,6202.61" origBoundary="103.675220,1.288750,103.819970,1.344806" projParameter="+proj=utm +zone=48 +ellps=WGS84 +datum=WGS84 +units=m +no_defs"/>

    <poly id="102927419" type="building" color="255,230,230" fill="1" layer="-1.00" shape="2376.416346,5353.305183 2377.551298,5353.227189 2378.285248,5352.364435 2378.195630,5351.236776 2377.338434,5350.507539 2378.116083,5348.119042 2379.740963,5348.648865 2379.229931,5350.208024 2384.393916,5351.863674 2388.015562,5340.783695 2382.105906,5338.874154 2381.494892,5340.742933 2380.459870,5340.411804 2380.004398,5341.827207 2378.546465,5341.363631 2379.568523,5338.234256 2377.275894,5337.505781 2377.931377,5335.559587 2382.757826,5330.217003 2389.682339,5336.393600 2394.898012,5330.608573 2389.754726,5326.023086 2391.289401,5324.319656 2388.940408,5322.220273 2393.077301,5317.519301 2395.435596,5316.180280 2396.582772,5318.169741 2399.463890,5316.520877 2400.243535,5317.891400 2398.719547,5318.765628 2399.142775,5319.495096 2397.529791,5320.413596 2400.637189,5325.796191 2410.481947,5320.185603 2408.744473,5317.168252 2410.312965,5316.282944 2407.350359,5311.154559 2404.357997,5312.858762 2403.589503,5311.532456 2411.387446,5307.094885 2412.133667,5308.388034 2409.007817,5310.169700 2412.070669,5315.485984 2413.939506,5314.423621 2415.777214,5317.606758 2425.332754,5312.173219 2422.036016,5306.459046 2420.634388,5307.255817 2420.333667,5306.725292 2418.932046,5307.533119 2418.130135,5306.140496 2421.089127,5304.458422 2416.867965,5297.141628 2413.920101,5298.823695 2413.285259,5297.729494 2414.875988,5296.811006 2414.486160,5296.114689 2416.076895,5295.207257 2412.813568,5289.548346 2402.668457,5295.324931 2405.218968,5299.734900 2406.464866,5299.037714 2407.233365,5300.375075 2405.030806,5301.625566 2404.106858,5300.918476 2402.938559,5301.062823 2402.215772,5301.991906 2402.372171,5303.152697 2400.280851,5304.336793 2399.467813,5302.944175 2400.858319,5302.158465 2398.062776,5297.317445 2387.761934,5303.193618 2391.225725,5309.173046 2392.827587,5308.265608 2393.217397,5308.928758 2394.730264,5308.065592 2395.387390,5309.215061 2392.428398,5310.897135 2393.642403,5313.008176 2391.239616,5314.380388 2389.146776,5312.700996 2387.067305,5315.244967 2386.221260,5314.559947 2387.288802,5313.265835 2386.498424,5312.636066 2387.554839,5311.341959 2382.478586,5307.265010 2375.406183,5315.958737 2379.280167,5319.074457 2380.103060,5318.067929 2381.494581,5319.194897 2378.180780,5323.265243 2376.722471,5322.094087 2377.634318,5320.965897 2373.626746,5317.739688 2366.565459,5326.411298 2371.697378,5330.543497 2372.464668,5329.603334 2373.143726,5330.144715 2374.211263,5328.839547 2375.101835,5329.557711 2373.066856,5332.068490 2374.825734,5333.482718 2374.014808,5336.070239 2371.788950,5335.352785 2370.744684,5338.570619 2369.398042,5338.140152 2369.920166,5336.514651 2369.096599,5336.249746 2369.563186,5334.812225 2363.230619,5332.770237 2359.842256,5343.109345 2363.570569,5344.312464 2362.981786,5346.137007 2368.757884,5347.991339 2369.846595,5344.651866 2371.048563,5345.049242 2368.115695,5354.017171 2366.769047,5353.575648 2367.924434,5350.070300 2362.203979,5348.226994 2361.681843,5349.830383 2357.942402,5348.627271 2354.509613,5359.121186 2360.819919,5361.152129 2361.264292,5359.792012 2361.987695,5360.023803 2362.520946,5358.398296 2363.656133,5358.762539 2362.589642,5362.035665 2364.492753,5362.653788 2364.571144,5363.593501 2365.361764,5364.676564 2366.652763,5365.096005 2367.932189,5364.675199 2368.655111,5364.000403 2370.825320,5364.695775 2371.780725,5361.776498 2373.628187,5362.372538 2372.595026,5365.546143 2378.794040,5367.543977 2382.326800,5356.718332 2377.752660,5355.239264 2377.363841,5356.444568 2375.583149,5355.859548 2376.416346,5353.305183"/>
    <poly id="102968154" type="building" color="255,230,230" fill="1" layer="-1.00" shape="2263.485527,5355.255733 2268.768904,5351.239616 2271.775377,5355.151825 2272.609597,5354.521192 2275.927837,5358.809138 2273.280582,5360.811671 2272.601353,5359.949668 2270.410146,5361.620280 2271.924516,5363.587435 2269.533091,5365.401881 2268.219161,5363.711019 2264.982396,5366.167160 2264.381106,5365.393563 2262.223262,5367.030990 2258.994088,5362.831445 2258.684066,5365.739325 2253.932367,5365.166941 2254.530666,5360.313061 2252.427455,5360.059891 2251.939965,5364.040292 2247.755803,5363.544998 2247.002420,5369.714619 2242.829385,5369.219319 2242.629991,5370.910985 2239.547511,5370.547777 2239.824503,5368.303272 2237.265039,5367.995066 2237.109932,5369.266583 2233.660219,5368.848290 2234.369239,5362.955092 2235.448666,5363.087189 2235.958311,5358.918825 2244.271004,5359.920499 2244.603374,5357.189502 2242.132936,5356.892305 2242.465294,5354.139196 2244.379328,5354.370354 2244.700595,5351.683587 2239.692953,5351.089227 2240.147190,5347.352075 2242.250402,5347.605244 2242.748948,5343.492165 2249.359040,5344.284681 2248.860528,5348.464095 2253.178230,5348.981431 2253.687858,5344.779899 2260.264567,5345.572433 2259.754957,5349.807132 2261.813652,5350.049269 2261.370507,5353.720080 2256.440758,5353.125678 2256.130548,5355.679767 2258.033455,5355.910931 2257.734349,5358.420791 2260.082380,5358.706998 2260.348280,5356.528834 2263.241583,5356.870031 2263.485527,5355.255733"/>
    <poly id="102971667" type="building" color="255,230,230" fill="1" layer="-1.00" shape="2284.220726,5343.481187 2287.338537,5347.514951 2285.169578,5349.174496 2285.804274,5349.992299 2282.712112,5352.348859 2284.048320,5354.083933 2281.656901,5355.909435 2280.131404,5353.942287 2278.162656,5355.446942 2278.964380,5356.485775 2275.927837,5358.809138 2272.609597,5354.521192 2273.710761,5353.680355 2270.971545,5350.143907 2276.388385,5346.006104 2277.556819,5346.116043 2277.900123,5343.020195 2279.936547,5343.229176 2280.423738,5338.684922 2275.772226,5338.189875 2275.218605,5343.364354 2271.034467,5342.913283 2271.266991,5340.746193 2267.171878,5340.306131 2267.880541,5333.738520 2272.409641,5334.211520 2272.885763,5329.777831 2268.456810,5329.304778 2269.143325,5322.936187 2273.750322,5323.420201 2273.960703,5321.463187 2277.788742,5321.870223 2277.257305,5326.912018 2280.072692,5327.209033 2280.294165,5325.185677 2282.853611,5325.460716 2282.565720,5328.136409 2285.225313,5328.411395 2286.088991,5320.395373 2290.473428,5320.857394 2290.639541,5319.353697 2296.515135,5319.980766 2296.072213,5324.071702 2294.425266,5323.895681 2294.137369,5326.560318 2296.563274,5326.813316 2296.275401,5329.522176 2293.949648,5329.280181 2293.473478,5333.625421 2287.464349,5332.987368 2287.087891,5336.514416 2283.259853,5336.107379 2283.016243,5338.351866 2287.945957,5338.879933 2287.414467,5343.822224 2284.220726,5343.481187"/>
    <poly id="107936191" type="amenity" color="237,199,199" fill="1" layer="-1.00" shape="2616.119308,5515.368595 2623.390188,5482.296434 2682.639113,5495.145171 2675.368224,5528.206268 2616.119308,5515.368595"/>
    <poly id="107936191#1" type="building" color="255,230,230" fill="1" layer="-1.00" shape="2616.119308,5515.368595 2623.390188,5482.296434 2682.639113,5495.145171 2675.368224,5528.206268 2616.119308,5515.368595"/>
    <poly id="292420468" type="building" color="255,230,230" fill="1" layer="-1.00" shape="2743.348434,5282.087313 2787.245690,5281.655010 2787.450288,5268.763689 2744.676661,5268.753158 2694.930794,5256.474239 2694.943068,5258.641196 2680.878179,5258.858705 2680.607590,5336.228267 2696.653334,5336.363494 2696.317963,5375.446393 2740.727504,5375.831935 2741.084181,5334.946915 2735.765270,5334.894452 2735.996151,5308.603327 2780.672752,5308.988745 2780.788272,5295.986911 2743.233214,5295.653000 2743.348434,5282.087313"/>
    <poly id="33543624" type="building" color="255,230,230" fill="1" layer="-1.00" shape="2391.114584,5393.264618 2390.180846,5416.029304 2549.669523,5415.944644 2549.657952,5394.131284 2391.114584,5393.264618"/>
    <poly id="383249795" type="building" color="255,230,230" fill="1" layer="-1.00" shape="2492.566999,5505.760237 2490.174550,5505.639893 2490.251625,5504.103076 2492.310242,5504.201486 2492.695713,5496.694298 2490.191990,5496.574012 2490.246952,5495.302550 2487.019926,5495.138424 2487.229121,5490.948111 2480.619280,5490.608887 2480.421130,5494.644411 2478.329125,5494.534963 2478.075826,5499.488159 2480.357002,5499.608563 2480.291019,5501.079038 2478.009849,5500.969690 2477.712504,5506.796329 2479.993674,5506.905677 2479.916552,5508.354046 2477.512975,5508.233707 2477.248590,5513.264301 2479.251575,5513.373796 2479.042399,5517.597277 2485.552087,5517.925498 2485.772368,5513.657788 2489.021648,5513.821901 2489.153779,5511.190517 2489.821885,5512.063581 2491.612705,5510.769085 2492.470135,5511.940560 2490.768299,5513.168673 2493.563295,5516.981488 2494.386403,5516.384030 2496.323975,5519.036427 2499.983482,5516.403169 2498.925619,5514.966459 2501.817631,5512.886406 2501.049291,5511.847556 2502.895730,5510.519863 2504.120621,5512.177603 2508.002588,5509.378389 2506.688601,5507.576968 2508.446057,5506.315658 2509.169858,5507.299252 2512.039622,5505.230268 2513.041813,5506.600672 2517.313086,5503.513797 2515.464598,5500.982968 2515.631444,5500.861264 2512.647148,5496.794263 2511.134407,5497.889604 2510.410600,5496.894954 2512.290403,5495.534075 2511.744757,5494.771505 2514.293213,5495.311893 2514.859282,5492.624999 2518.854448,5493.452074 2520.264015,5486.651922 2516.569323,5485.891024 2516.991083,5483.856507 2512.049990,5482.841984 2511.594936,5485.042358 2510.370796,5484.799777 2510.825862,5482.621515 2504.827557,5481.397491 2504.450177,5483.188753 2503.137000,5482.913052 2503.603158,5480.668449 2498.628677,5479.642887 2498.229119,5481.577889 2494.100412,5480.728774 2492.768544,5487.164038 2496.619037,5487.958021 2495.964178,5491.076144 2497.199451,5491.329775 2496.589019,5494.293091 2503.477613,5495.704594 2503.965950,5493.316251 2506.013609,5493.735290 2505.469771,5496.377948 2492.566999,5505.760237"/>
    <poly id="383249796" type="building" color="255,230,230" fill="1" layer="-1.00" shape="2541.896181,5508.652813 2539.548030,5508.134430 2539.892180,5506.630640 2541.906469,5507.071808 2543.538295,5499.729798 2541.078865,5499.200419 2541.356391,5497.962007 2538.195849,5497.267160 2539.117243,5493.164918 2532.651484,5491.742134 2531.774511,5495.678514 2529.737968,5495.237358 2528.650056,5500.080436 2530.886916,5500.565710 2530.564991,5502.014209 2528.350386,5501.528924 2527.073762,5507.223410 2529.299494,5507.708690 2528.988679,5509.124015 2526.629401,5508.605638 2525.541531,5513.526109 2527.500177,5513.956251 2526.578801,5518.091661 2532.944401,5519.492385 2533.876881,5515.312745 2537.048557,5516.018641 2537.625813,5513.442301 2538.127061,5514.414958 2540.107216,5513.440984 2540.753290,5514.734186 2538.884379,5515.652821 2541.000828,5519.886122 2541.913031,5519.432344 2543.383399,5522.361387 2547.421578,5520.369174 2546.630689,5518.777539 2549.823410,5517.205900 2549.244177,5516.056390 2551.291079,5515.049213 2552.204497,5516.884014 2556.509668,5514.770045 2555.518275,5512.780502 2557.465054,5511.817602 2558.010876,5512.911850 2561.181349,5511.351280 2561.938808,5512.854485 2566.666701,5510.519173 2565.274295,5507.722760 2565.452286,5507.634218 2563.202164,5503.124589 2561.522365,5503.943620 2560.976543,5502.849372 2563.056815,5501.820066 2562.644657,5500.980033 2565.070928,5501.929556 2566.071035,5499.375104 2569.877376,5500.843523 2572.410983,5494.374455 2568.882885,5493.016447 2569.638520,5491.081257 2564.941802,5489.259520 2564.119491,5491.360585 2562.950883,5490.918967 2563.762084,5488.851077 2558.063697,5486.642913 2557.396964,5488.356938 2556.139313,5487.871144 2556.972728,5485.725850 2552.231494,5483.893080 2551.520322,5485.739799 2547.591551,5484.216165 2545.202418,5490.342423 2548.864079,5491.766696 2547.708412,5494.741357 2548.877026,5495.194030 2547.776907,5498.002822 2554.332272,5500.531152 2555.221258,5498.264213 2557.168947,5499.014983 2556.191070,5501.525200 2541.896181,5508.652813"/>
    <poly id="383249799" type="building" color="255,230,230" fill="1" layer="-1.00" shape="2364.245602,5504.844435 2361.975194,5504.049614 2362.486283,5502.601013 2364.433938,5503.285447 2366.944953,5496.186195 2364.574381,5495.358259 2364.996587,5494.163992 2361.935994,5493.104248 2363.335934,5489.134420 2357.092318,5486.959717 2355.747926,5490.763677 2353.778016,5490.079255 2352.122529,5494.767856 2354.281639,5495.518513 2353.792775,5496.911822 2351.644792,5496.161159 2349.700428,5501.668054 2351.848411,5502.418717 2351.370663,5503.789908 2349.089127,5502.995093 2347.411420,5507.750041 2349.303427,5508.412392 2347.892372,5512.404339 2354.046951,5514.545921 2355.469110,5510.509745 2358.540836,5511.580538 2359.418577,5509.092484 2359.808582,5510.120480 2361.889013,5509.389681 2362.379340,5510.749302 2360.410165,5511.446873 2362.003742,5515.890517 2362.960515,5515.547274 2364.063770,5518.642352 2368.324756,5517.136478 2367.722990,5515.467350 2371.082829,5514.282578 2370.648215,5513.066655 2372.795393,5512.302654 2373.486325,5514.248133 2378.014320,5512.653670 2377.267670,5510.553437 2379.314725,5509.833713 2379.727055,5510.994368 2383.064639,5509.809608 2383.632981,5511.401362 2388.617111,5509.640818 2387.558441,5506.689443 2387.758699,5506.623001 2386.053690,5501.880907 2384.295893,5502.500974 2383.883569,5501.351375 2386.075251,5500.576294 2385.763214,5499.691984 2388.056112,5500.929032 2389.356728,5498.507089 2392.963014,5500.417851 2396.253463,5494.291109 2392.914310,5492.523932 2393.903671,5490.688120 2389.451469,5488.335569 2388.384293,5490.315150 2387.282377,5489.740827 2388.338438,5487.783363 2382.929006,5484.911692 2382.061928,5486.526321 2380.882091,5485.896759 2381.960372,5483.872948 2377.485903,5481.498298 2376.552126,5483.234577 2372.834536,5481.268595 2369.721949,5487.063564 2373.194672,5488.908061 2371.682841,5491.717075 2372.795896,5492.313504 2371.361881,5494.978749 2377.561575,5498.259070 2378.717682,5496.113602 2380.565343,5497.085544 2379.286958,5499.463251 2364.245602,5504.844435"/>
    <poly id="705323251" type="residential" color="235,235,227" fill="1" layer="-3.00" shape="2505.642710,5381.948878 2594.538386,5380.177001 2612.835650,5366.468995 2621.465832,5315.684509 2616.562684,5239.268482 2619.984821,5145.578674 2614.424363,5130.667160 2601.100422,5122.238534 2543.269612,5118.874976 2482.282944,5123.694497 2407.348624,5119.046482 2391.661647,5124.041027 2382.956290,5137.987188 2359.998707,5281.483421 2339.803798,5367.763690 2346.351943,5377.633173 2356.190622,5381.530696 2432.048661,5386.554039 2482.900758,5386.493881 2505.642710,5381.948878"/>
    <poly id="705323252" type="residential" color="235,235,227" fill="1" layer="-3.00" shape="2897.185393,5431.327238 2889.982580,5424.885447 2797.558730,5424.945440 2757.602899,5429.742768 2654.961803,5425.507466 2638.533105,5437.633481 2626.582457,5479.873491 2684.429710,5493.430552 2676.828419,5532.937432 2730.824340,5544.152676 2705.145778,5676.362076 2856.469636,5702.893396 2897.185393,5431.327238"/>
    <poly id="705323261" type="residential" color="235,235,227" fill="1" layer="-3.00" shape="2294.272123,5391.701894 2304.421705,5352.458941 2319.289691,5272.019027 2321.538335,5231.807354 2339.667203,5152.327591 2337.211431,5137.723988 2321.560108,5126.024041 2277.306190,5125.538940 2242.307362,5119.587295 2148.036315,5120.156961 2137.033822,5124.883695 2128.174349,5141.958794 2115.254732,5287.218796 2106.623037,5314.100414 2085.344628,5350.629555 2119.646916,5365.017218 2152.710382,5372.495570 2167.971478,5382.725267 2235.721275,5394.463832 2294.272123,5391.701894"/>
    <poly id="705323262" type="residential" color="235,235,227" fill="1" layer="-3.00" shape="2229.246391,5647.781224 2234.819170,5664.848645 2275.100602,5728.144617 2303.212122,5756.123305 2350.213032,5816.729084 2366.383989,5822.159996 2448.604443,5739.196644 2506.691265,5659.198129 2523.921188,5647.215388 2548.465983,5580.280750 2585.135274,5505.125129 2600.005348,5449.572213 2593.222915,5438.519875 2582.147587,5431.748461 2526.095695,5425.520539 2467.813425,5431.046276 2442.231253,5430.429669 2428.530329,5424.555183 2328.608357,5428.168275 2315.462726,5441.221279 2299.482217,5480.102487 2289.334427,5522.673284 2273.634966,5545.987576 2230.987049,5635.873038 2229.246391,5647.781224"/>
    <poly id="97191738" type="leisure" color="207,245,201" fill="1" layer="-2.00" shape="1997.533147,5549.805183 1998.734074,5506.487291 1999.911432,5481.577586 2004.674664,5462.017055 2013.021231,5443.040582 2024.351831,5427.611485 2044.044241,5400.922972 2066.117918,5374.233197 2098.949086,5384.287704 2137.754716,5392.570081 2187.299214,5402.626759 2209.989214,5404.980667 2245.797777,5406.155671 2261.921040,5405.550079 2279.826259,5407.906535 2270.882267,5433.406308 2258.368600,5463.065018 2248.235251,5490.942458 2235.711408,5522.370131 2220.220661,5561.505386 2210.675502,5586.419526 2195.179719,5616.068785 2179.151847,5649.510523 2173.530654,5646.008781 2145.632274,5600.417832 2115.776071,5597.736084 2052.180245,5550.704760 1997.533147,5549.805183"/>
    <poly id="97217293" type="building" color="255,230,230" fill="1" layer="-1.00" shape="2346.047247,5453.399734 2342.147324,5464.291914 2346.866220,5465.958854 2344.377389,5472.925423 2339.391384,5471.159122 2332.024868,5491.738154 2333.048781,5492.102456 2333.937643,5489.603340 2341.182930,5492.164468 2340.282964,5494.707814 2343.577285,5495.866937 2340.210691,5505.277337 2338.363199,5504.626019 2336.985444,5508.463165 2330.808586,5506.277371 2332.130781,5502.583982 2326.365711,5500.541697 2325.099065,5504.069217 2318.755267,5501.828233 2320.133034,5498.013198 2318.330057,5497.372912 2320.030019,5492.617951 2322.189142,5493.390719 2322.733566,5491.853653 2320.708001,5491.136093 2322.596846,5485.850347 2324.655799,5486.578944 2325.133577,5485.263033 2323.119139,5484.545467 2327.985703,5470.944065 2330.022395,5471.661619 2330.500161,5470.323596 2328.530245,5469.628118 2334.096800,5454.080498 2336.222529,5454.831173 2336.655856,5453.625844 2334.441091,5452.842049 2335.552183,5449.745793 2339.514277,5451.147793 2340.147597,5449.378505 2342.406414,5449.299913 2342.349896,5447.641551 2340.091079,5447.720143 2339.955195,5443.286781 2342.124998,5443.219292 2341.977975,5438.763824 2348.409489,5438.550343 2348.545220,5442.696251 2354.464886,5442.505154 2354.340464,5438.701975 2360.983398,5438.488383 2361.107773,5442.203114 2363.021647,5442.135762 2363.180121,5447.199301 2361.177222,5447.255645 2361.222560,5448.814509 2363.136434,5448.747156 2363.328666,5454.518258 2361.270130,5454.574631 2361.315515,5456.221943 2363.440809,5456.154478 2363.599236,5461.129570 2361.941286,5461.185730 2362.065761,5465.088413 2355.166904,5465.313198 2355.019992,5461.067793 2351.704092,5461.180114 2351.670128,5460.085594 2349.099751,5460.175407 2348.873554,5453.309785 2346.047247,5453.399734"/>
    <poly id="97217294" type="building" color="255,230,230" fill="1" layer="-1.00" shape="2404.272341,5444.944170 2404.783878,5444.335821 2406.576190,5445.849533 2407.543673,5444.721313 2405.929487,5443.373345 2409.187788,5439.568370 2409.944790,5440.209213 2411.757425,5438.085509 2415.442237,5441.190272 2414.174509,5442.683498 2416.645897,5444.771758 2415.834103,5445.723001 2417.715475,5447.314057 2418.849757,5445.975686 2422.645895,5449.179893 2421.478243,5450.540394 2422.947720,5451.788935 2423.525992,5451.125272 2426.398141,5453.544998 2427.565787,5452.173441 2431.261738,5455.300310 2429.171089,5457.744783 2429.727704,5458.208837 2426.369327,5462.146537 2424.487955,5460.555480 2423.676162,5461.506723 2425.045504,5462.777429 2425.157236,5463.639733 2427.694095,5463.295651 2428.107458,5466.402152 2432.202045,5465.858236 2433.118125,5472.701378 2429.368464,5473.200887 2429.658909,5475.334530 2424.574057,5476.011643 2424.261239,5473.656894 2422.781404,5473.856687 2423.094204,5476.178269 2417.141475,5476.966403 2416.851024,5474.821704 2415.493578,5474.999320 2415.817570,5477.442512 2410.766094,5478.108552 2410.475613,5475.908573 2406.603562,5476.430260 2405.698680,5469.719783 2409.492851,5469.220249 2409.068348,5466.091643 2410.781841,5465.858558 2410.368501,5462.796281 2417.033330,5461.908265 2417.424291,5464.738379 2419.237930,5464.505241 2418.835747,5461.498238 2406.790347,5451.001490 2382.120657,5450.461797 2382.099143,5451.854858 2384.435922,5451.908896 2384.272935,5459.294354 2381.235125,5459.229632 2381.202407,5460.478971 2378.019942,5460.414327 2377.933055,5464.427681 2371.256552,5464.287501 2371.343397,5460.196755 2369.340446,5460.153596 2369.449100,5455.222586 2371.741363,5455.265592 2371.774017,5453.894638 2369.548518,5453.851596 2369.678898,5447.925540 2371.837633,5447.968617 2371.870110,5446.265984 2369.778134,5446.211816 2369.886735,5441.181303 2371.900814,5441.224457 2371.976720,5437.487507 2378.642102,5437.638749 2378.544176,5441.817949 2381.014483,5441.871916 2381.068799,5439.384299 2384.184500,5439.448980 2384.130137,5441.848149 2385.365288,5441.869605 2385.408605,5439.625225 2399.885494,5439.938157 2399.842206,5442.237817 2401.477954,5442.281172 2401.532382,5440.003618 2404.325389,5440.068470 2404.272341,5444.944170"/>
    <poly id="97218608" type="building" color="255,230,230" fill="1" layer="-1.00" shape="2478.270599,5447.182398 2477.713931,5446.618841 2476.034566,5448.256012 2474.999157,5447.195191 2476.511705,5445.735004 2473.004686,5442.165797 2472.292898,5442.851643 2470.333418,5440.851558 2469.076670,5442.068378 2466.863456,5444.203350 2468.244001,5445.617778 2465.919572,5447.863368 2466.787982,5448.758438 2465.019634,5450.461992 2463.806087,5449.213315 2460.236031,5452.664665 2461.505233,5453.946480 2460.115027,5455.296043 2459.491560,5454.666185 2456.788993,5457.276823 2455.542046,5455.994996 2452.060963,5459.357851 2454.309913,5461.656292 2453.787191,5462.154087 2457.416682,5465.855900 2459.185024,5464.141290 2460.064563,5465.036354 2458.785637,5466.396914 2458.730458,5467.259307 2456.171074,5467.094827 2455.972442,5470.223764 2451.855173,5469.960608 2451.413736,5476.848695 2455.174918,5477.089928 2455.042528,5479.234851 2460.161297,5479.563811 2460.315823,5477.197757 2461.806944,5477.296469 2461.652400,5479.629354 2467.639132,5480.013133 2467.782643,5477.857148 2469.151357,5477.944869 2468.985750,5480.399376 2474.082257,5480.717292 2474.225739,5478.506027 2478.120454,5478.758246 2478.550835,5472.002837 2474.745144,5471.761627 2474.943763,5468.610578 2473.230089,5468.500929 2473.428744,5465.416216 2466.707581,5464.988603 2466.519931,5467.841136 2464.694977,5467.720489 2464.882539,5464.702118 2476.170830,5453.408008 2500.750025,5451.183771 2500.873171,5452.587810 2498.547656,5452.788051 2499.219207,5460.150951 2502.245706,5459.872946 2502.357643,5461.122208 2505.528797,5460.844126 2505.898125,5464.846180 2512.551977,5464.245627 2512.182608,5460.166181 2514.174314,5459.988229 2513.726613,5455.079629 2511.434480,5455.279853 2511.311357,5453.920038 2513.536726,5453.719850 2512.988345,5447.805213 2510.840868,5448.005360 2510.695308,5446.302822 2512.776027,5446.113767 2512.317141,5441.094614 2510.314313,5441.283628 2509.978514,5437.557954 2503.335789,5438.158501 2503.716332,5442.326388 2501.268422,5442.537750 2501.033432,5440.061345 2497.940169,5440.339385 2498.152857,5442.727355 2496.928905,5442.838564 2496.727426,5440.605371 2482.295909,5441.906577 2482.508544,5444.195044 2480.872896,5444.339640 2480.671400,5442.073279 2477.889692,5442.329042 2478.270599,5447.182398"/>
    <poly id="97218610" type="building" color="255,230,230" fill="1" layer="-1.00" shape="2559.411893,5448.068031 2559.967968,5447.514939 2561.626820,5449.161393 2562.683375,5448.132630 2561.191515,5446.640870 2564.761536,5443.123188 2565.462936,5443.830396 2567.453697,5441.872439 2570.860479,5445.275860 2569.459164,5446.658596 2571.752616,5448.945958 2570.862896,5449.830905 2572.599687,5451.565765 2573.845301,5450.337896 2577.341155,5453.840773 2576.062182,5455.112884 2577.431570,5456.472038 2578.054374,5455.852575 2580.715229,5458.515644 2581.994208,5457.254589 2585.412123,5460.669060 2583.121081,5462.925686 2583.633216,5463.445044 2579.951981,5467.073344 2578.204063,5465.338490 2577.314343,5466.223437 2578.572463,5467.593705 2578.617436,5468.467100 2581.165539,5468.344133 2581.311849,5471.461830 2585.440003,5471.271688 2585.766357,5478.170420 2581.994273,5478.349316 2582.095558,5480.494114 2576.965970,5480.740067 2576.853440,5478.374156 2575.362408,5478.441283 2575.474926,5480.785082 2569.477421,5481.064663 2569.376130,5478.908809 2568.007493,5478.964815 2568.131197,5481.419168 2563.034991,5481.665103 2562.922543,5479.453975 2559.028058,5479.632937 2558.701779,5472.877932 2562.518373,5472.699012 2562.372045,5469.548147 2564.096740,5469.458784 2563.950448,5466.374255 2570.671209,5466.050067 2570.806257,5468.913483 2572.642226,5468.824061 2572.495963,5465.794812 2561.395879,5454.313583 2536.869757,5451.695285 2536.714713,5453.088415 2539.040463,5453.330412 2538.243188,5460.671978 2535.227500,5460.352956 2535.094635,5461.602348 2531.923152,5461.261297 2531.491303,5465.252720 2524.847887,5464.548666 2525.290822,5460.479846 2523.298911,5460.270840 2523.830420,5455.361721 2526.111660,5455.603741 2526.255594,5454.243784 2524.041118,5454.001729 2524.683378,5448.108572 2526.819956,5448.339613 2527.008224,5446.647954 2524.927282,5446.416884 2525.469865,5441.408255 2527.472910,5441.628311 2527.871524,5437.913304 2534.492686,5438.617371 2534.038670,5442.774644 2536.497960,5443.038682 2536.763702,5440.562011 2539.857288,5440.892047 2539.602626,5443.280265 2540.826707,5443.412287 2541.070324,5441.178858 2555.469964,5442.719048 2555.215243,5444.996707 2556.851060,5445.172734 2557.094666,5442.917193 2559.876667,5443.214227 2559.411893,5448.068031"/>
    <poly id="97219208" type="parking" color="184,184,179" fill="1" layer="-1.00" shape="2379.890658,5546.638648 2415.748019,5493.141988 2442.095782,5510.574269 2406.249546,5564.059860 2379.890658,5546.638648"/>
    <poly id="97219208#1" type="building" color="255,230,230" fill="1" layer="-1.00" shape="2379.890658,5546.638648 2415.748019,5493.141988 2442.095782,5510.574269 2406.249546,5564.059860 2379.890658,5546.638648"/>
    <poly id="97802179" type="amenity" color="237,199,199" fill="1" layer="-1.00" shape="2667.523901,5382.194714 2709.775134,5383.333198 2754.755487,5389.987152 2787.112851,5388.057339 2788.372772,5266.706798 2758.395451,5266.368872 2732.657403,5265.553300 2707.706592,5259.441522 2653.542030,5245.053263 2649.089806,5263.662758 2646.062463,5304.361256 2649.186464,5362.093689 2657.239188,5376.495303 2667.523901,5382.194714"/>
    <poly id="97802894" type="building" color="255,230,230" fill="1" layer="-1.00" shape="2610.228809,5360.743402 2610.381944,5355.746038 2609.169042,5355.713513 2609.190893,5354.950642 2607.332592,5354.896347 2607.376217,5353.226878 2610.302763,5353.313774 2610.401368,5350.406011 2608.109094,5350.340890 2608.152689,5348.616141 2610.411581,5348.681279 2610.510080,5345.574509 2608.585010,5345.509194 2608.628845,5344.237738 2610.587292,5344.291980 2610.773135,5338.023166 2602.494228,5337.762211 2602.395764,5340.935317 2599.825300,5340.859288 2599.726958,5344.264569 2597.545958,5344.199389 2597.742775,5337.643115 2589.842211,5337.404072 2589.557828,5346.702266 2587.187656,5346.626131 2587.231334,5345.056164 2584.939059,5344.991044 2584.993782,5343.266289 2587.286056,5343.331409 2587.450030,5337.792298 2579.059855,5337.542459 2578.983417,5340.284372 2576.535354,5340.208279 2576.436919,5343.436664 2573.365711,5343.338789 2573.464128,5340.077236 2570.437435,5339.990393 2570.525018,5337.281642 2562.468670,5337.042682 2562.293668,5342.769751 2564.218733,5342.824010 2564.174992,5344.272361 2562.116392,5344.207117 2562.050748,5346.318836 2559.391258,5346.231798 2559.533405,5341.499782 2556.050478,5341.391069 2555.733301,5351.794875 2558.337153,5351.881942 2558.293388,5353.286069 2555.589389,5353.199055 2555.414464,5359.069851 2563.771263,5359.330762 2563.847777,5356.732576 2573.261688,5357.015039 2573.185233,5359.723784 2581.397370,5359.973716 2581.561578,5354.876842 2580.682504,5354.855196 2580.704366,5354.114437 2578.990721,5354.060066 2579.034445,5352.578547 2581.716183,5352.654517 2581.781910,5350.697581 2584.485903,5350.773539 2584.420158,5352.697307 2587.057393,5352.784356 2587.013628,5354.188483 2585.277728,5354.134124 2585.255895,5354.930163 2584.187650,5354.897562 2584.034598,5360.049709 2592.291244,5360.299618 2592.378792,5357.524532 2601.848339,5357.806966 2601.760744,5360.493605 2610.228809,5360.743402"/>
    <poly id="97802903" type="parking" color="184,184,179" fill="1" layer="-1.00" shape="2394.485267,5370.587087 2397.896437,5361.287227 2401.920892,5354.397237 2409.905745,5345.714082 2419.671577,5338.157690 2427.959270,5333.996257 2438.851168,5330.585247 2479.431778,5328.783710 2479.090332,5377.330528 2438.130530,5377.495993 2438.126757,5370.387024 2394.485267,5370.587087"/>
    <poly id="97802903#1" type="building" color="255,230,230" fill="1" layer="-1.00" shape="2394.485267,5370.587087 2397.896437,5361.287227 2401.920892,5354.397237 2409.905745,5345.714082 2419.671577,5338.157690 2427.959270,5333.996257 2438.851168,5330.585247 2479.431778,5328.783710 2479.090332,5377.330528 2438.130530,5377.495993 2438.126757,5370.387024 2394.485267,5370.587087"/>